Circuit: * LM3046

Fatal Error: No analysis request found.
