Circuit: * C:\Users\Andre\Documents\GitHub\Signalkompressor\concept\OpAmps_Test\Draft1.asc

Direct Newton iteration failed to find .op point.  (Use ".option noopiter" to skip.)
Starting Gmin stepping
Gmin = 10
Gmin = 1.07374
Gmin = 0.115292
Gmin = 0.0123794
Gmin = 0.00132923
vernier = 0.5
vernier = 0.666667
Gmin = 0.000497691
vernier = 0.888888
vernier = 1
Gmin = 7.02013e-005
Gmin = 7.53781e-006
Gmin = 8.09366e-007
vernier = 0.5
Gmin = 1.35789e-007
vernier = 0.25
vernier = 0.333333
Gmin = 7.28068e-008
vernier = 0.444444
vernier = 0.592592
Gmin = 2.50096e-008
vernier = 0.790123
Gmin = 4.87973e-009
vernier = 1
Gmin = 5.23957e-010
Gmin = 5.62595e-011
Gmin = 6.04081e-012
Gmin = 6.48627e-013
Gmin = 0
Gmin stepping succeeded in finding the operating point.

.step r13=1000
.step r13=10000
.step r13=100000

Date: Wed Jun 07 22:23:48 2017
Total elapsed time: 5.937 seconds.

tnom = 27
temp = 27
method = modified trap
totiter = 41077
traniter = 40034
tranpoints = 20018
accept = 20018
rejected = 0
matrix size = 19
fillins = 5
solver = Normal
Matrix Compiler1: 1.40 KB object code size  1.2/0.6/[0.4]
Matrix Compiler2: 1.83 KB object code size  0.6/0.8/[0.6]


