Circuit: * C:\Users\Andre\Documents\GitHub\Signalkompressor\concept\OpAmps_Test\Draft10.asc

Direct Newton iteration failed to find .op point.  (Use ".option noopiter" to skip.)
Starting Gmin stepping
Gmin = 10
Gmin = 1.07374
Gmin = 0.115292
Gmin = 0.0123794
Gmin = 0.00132923
vernier = 0.5
vernier = 0.666667
Gmin = 0.000497691
vernier = 0.888888
vernier = 0.444444
Gmin = 0.000132724
vernier = 0.592592
vernier = 0.790123
Gmin = 3.52699e-005
vernier = 1
Gmin = 4.69268e-006
Gmin = 5.03873e-007
Gmin = 5.41029e-008
Gmin = 5.80926e-009
Gmin = 6.23764e-010
vernier = 0.5
vernier = 0.666667
Gmin = 2.03448e-010
vernier = 0.888888
Gmin = 3.29433e-011
vernier = 1
Gmin = 3.53725e-012
Gmin = 3.7981e-013
Gmin = 0
Gmin stepping succeeded in finding the operating point.


Date: Wed Jun 07 21:48:10 2017
Total elapsed time: 0.797 seconds.

tnom = 27
temp = 27
method = trap
totiter = 905
traniter = 0
tranpoints = 0
accept = 0
rejected = 0
matrix size = 50
fillins = 8
solver = Normal
Matrix Compiler1:     206 opcodes
Matrix Compiler2: off  [1.8]/2.4/3.2


